output/2_TAP2_1/Cargas_MT_DO04_2_TAP2_1.dss
New "Load.MT_8444_M1" bus1="84441.1.2.3.4" phases=3 conn=delta model=2 kv=13.8 kw = 63.00194000947319 pf=0.92 status=variable vmaxpu=1.5 vminpu=0.93 daily="1_DO" 
New "Load.MT_8444_M2" bus1="84441.1.2.3.4" phases=3 conn=delta model=3 kv=13.8 kw = 63.00194000947319 pf=0.92 status=variable vmaxpu=1.5 vminpu=0.93 daily="1_DO"
 
New "Load.MT_8266_M1" bus1="82661.1.2.3.4" phases=3 conn=delta model=2 kv=13.8 kw = 3008.621117568922 pf=0.92 status=variable vmaxpu=1.5 vminpu=0.93 daily="5_DO" 
New "Load.MT_8266_M2" bus1="82661.1.2.3.4" phases=3 conn=delta model=3 kv=13.8 kw = 3008.621117568922 pf=0.92 status=variable vmaxpu=1.5 vminpu=0.93 daily="5_DO"
 
New "Load.MT_8092_M1" bus1="80921.1.2.3.4" phases=3 conn=delta model=2 kv=13.8 kw = 6777.323628494866 pf=0.92 status=variable vmaxpu=1.5 vminpu=0.93 daily="6_DO" 
New "Load.MT_8092_M2" bus1="80921.1.2.3.4" phases=3 conn=delta model=3 kv=13.8 kw = 6777.323628494866 pf=0.92 status=variable vmaxpu=1.5 vminpu=0.93 daily="6_DO"
 
New "Load.MT_7769_M1" bus1="77691.1.2.3.4" phases=3 conn=delta model=2 kv=13.8 kw = 275.63348754144516 pf=0.92 status=variable vmaxpu=1.5 vminpu=0.93 daily="1_DO" 
New "Load.MT_7769_M2" bus1="77691.1.2.3.4" phases=3 conn=delta model=3 kv=13.8 kw = 275.63348754144516 pf=0.92 status=variable vmaxpu=1.5 vminpu=0.93 daily="1_DO"
 
New "Load.MT_7632_M1" bus1="76321.1.2.3.4" phases=3 conn=delta model=2 kv=13.8 kw = 16092.236355625337 pf=0.92 status=variable vmaxpu=1.5 vminpu=0.93 daily="6_DO" 
New "Load.MT_7632_M2" bus1="76321.1.2.3.4" phases=3 conn=delta model=3 kv=13.8 kw = 16092.236355625337 pf=0.92 status=variable vmaxpu=1.5 vminpu=0.93 daily="6_DO"
 
New "Load.MT_7595_M1" bus1="75951.1.2.3.4" phases=3 conn=delta model=2 kv=13.8 kw = 18809.67015380947 pf=0.92 status=variable vmaxpu=1.5 vminpu=0.93 daily="3_DO" 
New "Load.MT_7595_M2" bus1="75951.1.2.3.4" phases=3 conn=delta model=3 kv=13.8 kw = 18809.67015380947 pf=0.92 status=variable vmaxpu=1.5 vminpu=0.93 daily="3_DO"
 
New "Load.MT_7322_M1" bus1="73221.1.2.3.4" phases=3 conn=delta model=2 kv=13.8 kw = 12986.012376369288 pf=0.92 status=variable vmaxpu=1.5 vminpu=0.93 daily="1_DO" 
New "Load.MT_7322_M2" bus1="73221.1.2.3.4" phases=3 conn=delta model=3 kv=13.8 kw = 12986.012376369288 pf=0.92 status=variable vmaxpu=1.5 vminpu=0.93 daily="1_DO"
 
New "Load.MT_6803_M1" bus1="68031.1.2.3.4" phases=3 conn=delta model=2 kv=13.8 kw = 7532.931960466011 pf=0.92 status=variable vmaxpu=1.5 vminpu=0.93 daily="1_DO" 
New "Load.MT_6803_M2" bus1="68031.1.2.3.4" phases=3 conn=delta model=3 kv=13.8 kw = 7532.931960466011 pf=0.92 status=variable vmaxpu=1.5 vminpu=0.93 daily="1_DO"
 
New "Load.MT_7250_M1" bus1="72501.1.2.3.4" phases=3 conn=delta model=2 kv=13.8 kw = 22.83820325343403 pf=0.92 status=variable vmaxpu=1.5 vminpu=0.93 daily="1_DO" 
New "Load.MT_7250_M2" bus1="72501.1.2.3.4" phases=3 conn=delta model=3 kv=13.8 kw = 22.83820325343403 pf=0.92 status=variable vmaxpu=1.5 vminpu=0.93 daily="1_DO"
 
New "Load.MT_126_M1" bus1="1261.1.2.3.4" phases=3 conn=delta model=2 kv=13.8 kw = 2192215.021616982 pf=0.92 status=variable vmaxpu=1.5 vminpu=0.93 daily="3_DO" 
New "Load.MT_126_M2" bus1="1261.1.2.3.4" phases=3 conn=delta model=3 kv=13.8 kw = 2192215.021616982 pf=0.92 status=variable vmaxpu=1.5 vminpu=0.93 daily="3_DO"
 
New "Load.MT_1236_M1" bus1="12361.1.2.3.4" phases=3 conn=delta model=2 kv=13.8 kw = 265239.49078750843 pf=0.92 status=variable vmaxpu=1.5 vminpu=0.93 daily="3_DO" 
New "Load.MT_1236_M2" bus1="12361.1.2.3.4" phases=3 conn=delta model=3 kv=13.8 kw = 265239.49078750843 pf=0.92 status=variable vmaxpu=1.5 vminpu=0.93 daily="3_DO"
 
New "Load.MT_1705_M1" bus1="17051.1.2.3.4" phases=3 conn=delta model=2 kv=13.8 kw = 16460.83027413832 pf=0.92 status=variable vmaxpu=1.5 vminpu=0.93 daily="7_DO" 
New "Load.MT_1705_M2" bus1="17051.1.2.3.4" phases=3 conn=delta model=3 kv=13.8 kw = 16460.83027413832 pf=0.92 status=variable vmaxpu=1.5 vminpu=0.93 daily="7_DO"
 
New "Load.MT_461_M1" bus1="4611.1.2.3.4" phases=3 conn=delta model=2 kv=13.8 kw = 658.8952892657404 pf=0.92 status=variable vmaxpu=1.5 vminpu=0.93 daily="1_DO" 
New "Load.MT_461_M2" bus1="4611.1.2.3.4" phases=3 conn=delta model=3 kv=13.8 kw = 658.8952892657404 pf=0.92 status=variable vmaxpu=1.5 vminpu=0.93 daily="1_DO"
 
New "Load.MT_427_M1" bus1="4271.1.2.3.4" phases=3 conn=delta model=2 kv=13.8 kw = 6591.577973491131 pf=0.92 status=variable vmaxpu=1.5 vminpu=0.93 daily="1_DO" 
New "Load.MT_427_M2" bus1="4271.1.2.3.4" phases=3 conn=delta model=3 kv=13.8 kw = 6591.577973491131 pf=0.92 status=variable vmaxpu=1.5 vminpu=0.93 daily="1_DO"
 
